#======================================================================

# CRYSTAL DATA

#----------------------------------------------------------------------

data_VESTA_phase_1


_pd_phase_name                         'MAPI Orthorhombic (700 eV)			         '
_cell_length_a                         8.35416
_cell_length_b                         12.66141
_cell_length_c                         9.04334
_cell_angle_alpha                      90
_cell_angle_beta                       90
_cell_angle_gamma                      90
_symmetry_space_group_name_H-M         'P 1'
_symmetry_Int_Tables_number            1

loop_
_symmetry_equiv_pos_as_xyz
   'x, y, z'

loop_
   _atom_site_label
   _atom_site_occupancy
   _atom_site_fract_x
   _atom_site_fract_y
   _atom_site_fract_z
   _atom_site_adp_type
   _atom_site_B_iso_or_equiv
   _atom_site_type_symbol
   C1         1.0     0.532785      0.250000      0.937253     Biso  1.000000 N
   C2         1.0     0.467215      0.750000      0.062747     Biso  1.000000 N
   C3         1.0     0.967215      0.750000      0.437253     Biso  1.000000 N
   C4         1.0     0.032785      0.250000      0.562747     Biso  1.000000 N
   N1         1.0     0.458860      0.250000      0.086045     Biso  1.000000 C
   N2         1.0     0.541140      0.750000      0.913955     Biso  1.000000 C
   N3         1.0     0.041140      0.750000      0.586045     Biso  1.000000 C
   N4         1.0     0.958860      0.250000      0.413955     Biso  1.000000 C
   H1         1.0     0.495362      0.316718      0.145267     Biso  1.000000 H
   H2         1.0     0.504638      0.683282      0.854733     Biso  1.000000 H
   H3         1.0     0.004638      0.683282      0.645267     Biso  1.000000 H
   H4         1.0     0.995362      0.316718      0.354733     Biso  1.000000 H
   H5         1.0     0.504638      0.816718      0.854733     Biso  1.000000 H
   H6         1.0     0.495362      0.183282      0.145267     Biso  1.000000 H
   H7         1.0     0.995362      0.183282      0.354733     Biso  1.000000 H
   H8         1.0     0.004638      0.816718      0.645267     Biso  1.000000 H
   H9         1.0     0.333838      0.250000      0.078702     Biso  1.000000 H
   H10        1.0     0.666162      0.750000      0.921298     Biso  1.000000 H
   H11        1.0     0.166162      0.750000      0.578702     Biso  1.000000 H
   H12        1.0     0.833838      0.250000      0.421298     Biso  1.000000 H
   H13        1.0     0.493950      0.321238      0.877671     Biso  1.000000 H
   H14        1.0     0.506050      0.678762      0.122329     Biso  1.000000 H
   H15        1.0     0.006050      0.678762      0.377671     Biso  1.000000 H
   H16        1.0     0.993950      0.321238      0.622330     Biso  1.000000 H
   H17        1.0     0.506050      0.821238      0.122329     Biso  1.000000 H
   H18        1.0     0.493950      0.178762      0.877671     Biso  1.000000 H
   H19        1.0     0.993950      0.178762      0.622330     Biso  1.000000 H
   H20        1.0     0.006050      0.821238      0.377671     Biso  1.000000 H
   H21        1.0     0.663784      0.250000      0.949640     Biso  1.000000 H
   H22        1.0     0.336216      0.750000      0.050360     Biso  1.000000 H
   H23        1.0     0.836216      0.750000      0.449640     Biso  1.000000 H
   H24        1.0     0.163784      0.250000      0.550360     Biso  1.000000 H
   Pb1        1.0     0.500000      0.000000      0.500000     Biso  1.000000 Pb
   Pb2        1.0     0.000000      0.000000      0.000000     Biso  1.000000 Pb
   Pb3        1.0     0.500000      0.500000      0.500000     Biso  1.000000 Pb
   Pb4        1.0     0.000000      0.500000      0.000000     Biso  1.000000 Pb
   I1         1.0     0.538377      0.250000      0.511601     Biso  1.000000 I
   I2         1.0     0.461623      0.750000      0.488399     Biso  1.000000 I
   I3         1.0     0.961623      0.750000      0.011601     Biso  1.000000 I
   I4         1.0     0.038377      0.250000      0.988399     Biso  1.000000 I
   I5         1.0     0.816050      0.977673      0.693164     Biso  1.000000 I
   I6         1.0     0.183950      0.022327      0.306836     Biso  1.000000 I
   I7         1.0     0.683950      0.022327      0.193164     Biso  1.000000 I
   I8         1.0     0.316050      0.977673      0.806836     Biso  1.000000 I
   I9         1.0     0.183950      0.477673      0.306836     Biso  1.000000 I
   I10        1.0     0.816050      0.522327      0.693164     Biso  1.000000 I
   I11        1.0     0.316050      0.522327      0.806836     Biso  1.000000 I
   I12        1.0     0.683950      0.477673      0.193164     Biso  1.000000 I
